*KEYWORD
$ Curve from Kim, EPS30
$#    lcid      sidr       sfa       sfo      offa      offo    dattyp
$#                a1                  o1
$  LCUYS
$#    lcid      sidr       sfa       sfo      offa      offo    dattyp
$#                a1                  o1
$#===============================================================================
$# Elements and Nodes
$#===============================================================================
$#   eid     pid      n1      n2      n3      n4      n5      n6      n7      n8
$#   eid     pid      n1      n2      n3      n4      n5      n6      n7      n8
$#   nid               x               y               z      tc      rc
$#===============================================================================
$# Ground model for Project in Biomechanics ans Neuronics SD2450
$# Units are in SI (m, s, kg ...)
$#===============================================================================
*NODE
 7010001           0.667            -0.3          -0.435     0.0     0.0
 7010002        0.689167            -0.3          -0.435     0.0     0.0
 7010003        0.711333            -0.3          -0.435     0.0     0.0
 7010004          0.7335            -0.3          -0.435     0.0     0.0
 7010005        0.755667            -0.3          -0.435     0.0     0.0
 7010006        0.777833            -0.3          -0.435     0.0     0.0
 7010007             0.8            -0.3          -0.435     0.0     0.0
 7010008           0.667           -0.27          -0.435     0.0     0.0
 7010009        0.689167           -0.27          -0.435     0.0     0.0
 7010010        0.711333           -0.27          -0.435     0.0     0.0
 7010011          0.7335           -0.27          -0.435     0.0     0.0
 7010012        0.755667           -0.27          -0.435     0.0     0.0
 7010013        0.777833           -0.27          -0.435     0.0     0.0
 7010014             0.8           -0.27          -0.435     0.0     0.0
 7010015           0.667           -0.24          -0.435     0.0     0.0
 7010016        0.689167           -0.24          -0.435     0.0     0.0
 7010017        0.711333           -0.24          -0.435     0.0     0.0
 7010018          0.7335           -0.24          -0.435     0.0     0.0
 7010019        0.755667           -0.24          -0.435     0.0     0.0
 7010020        0.777833           -0.24          -0.435     0.0     0.0
$ ... 6007 like lines cut
$# title
$#     pid     secid       mid     eosid      hgid      grav    adpopt      tmid
$#   secid    elform       aet
$#     mid        ro         e        pr        da        db  not used
*MAT_ELASTIC
$HMNAME MATS     701MATL1_701                                                               
       701    1500.06.5000E+09       0.3                              
$# title
$#     pid     secid       mid     eosid      hgid      grav    adpopt      tmid
$#   secid    elform      shrf       nip     propt   qr/irid     icomp     setyp
$#      t1        t2        t3        t4      nloc     marea      idof    edgset
$#     mid        ro         e        pr         n    couple         m     alias
$#     cmo      con1      con2
$# lco or a1      a2        a3        v1        v2        v3
*MAT_RIGID
$HMNAME MATS     601MATL20_601                                                              
       601    1500.0205000000.      0.31       0.0       0.0       0.0          
       1.0         7         7
       0.0       0.0       0.0       0.0       0.0       0.0
*PART
$HWCOLOR COMPS     601      35
Rigid plate to constrain Ground                                                 
       601       601       601         0         0         0         0         0
$HWCOLOR COMPS     701      37
Ground                                                                          
       701       701       701         0         0         0         0         0
*SECTION_SHELL
$HMNAME PROPS     601SectShll_601                                                            
       601         2  0.833333         2                                        
      0.01      0.01      0.01      0.01                                        
*SECTION_SOLID
$HMNAME PROPS     701SectSld_701                                                             
       701         2         0
*ELEMENT_SHELL
 6010001     601 7015859 7015866 7016013 7016006
 6010002     601 7014074 7014081 7014228 7014221
 6010003     601 7012289 7012296 7012443 7012436
 6010004     601 7010504 7010511 7010658 7010651
 6010005     601 7014585 7014592 7014739 7014732
 6010006     601 7012800 7012807 7012954 7012947
 6010007     601 7011015 7011022 7011169 7011162
 6010008     601 7015096 7015103 7015250 7015243
 6010009     601 7013311 7013318 7013465 7013458
 6010010     601 7011526 7011533 7011680 7011673
 6010011     601 7015607 7015614 7015761 7015754
 6010012     601 7012037 7012044 7012191 7012184
 6010013     601 7010252 7010259 7010406 7010399
 6010014     601 7014333 7014340 7014487 7014480
 6010015     601 7012548 7012555 7012702 7012695
 6010016     601 7010763 7010770 7010917 7010910
 6010017     601 7014844 7014851 7014998 7014991
 6010018     601 7013059 7013066 7013213 7013206
 6010019     601 7011274 7011281 7011428 7011421
 6010020     601 7015355 7015362 7015509 7015502
$ ... 780 like lines cut
*ELEMENT_SOLID
 7010001     701 7010001 7010002 7010009 7010008 7010148 7010149 7010156 7010155
 7010002     701 7010002 7010003 7010010 7010009 7010149 7010150 7010157 7010156
 7010003     701 7010003 7010004 7010011 7010010 7010150 7010151 7010158 7010157
 7010004     701 7010004 7010005 7010012 7010011 7010151 7010152 7010159 7010158
 7010005     701 7010005 7010006 7010013 7010012 7010152 7010153 7010160 7010159
 7010006     701 7010006 7010007 7010014 7010013 7010153 7010154 7010161 7010160
 7010007     701 7010008 7010009 7010016 7010015 7010155 7010156 7010163 7010162
 7010008     701 7010009 7010010 7010017 7010016 7010156 7010157 7010164 7010163
 7010009     701 7010010 7010011 7010018 7010017 7010157 7010158 7010165 7010164
 7010010     701 7010011 7010012 7010019 7010018 7010158 7010159 7010166 7010165
 7010011     701 7010012 7010013 7010020 7010019 7010159 7010160 7010167 7010166
 7010012     701 7010013 7010014 7010021 7010020 7010160 7010161 7010168 7010167
 7010013     701 7010015 7010016 7010023 7010022 7010162 7010163 7010170 7010169
 7010014     701 7010016 7010017 7010024 7010023 7010163 7010164 7010171 7010170
 7010015     701 7010017 7010018 7010025 7010024 7010164 7010165 7010172 7010171
 7010016     701 7010018 7010019 7010026 7010025 7010165 7010166 7010173 7010172
 7010017     701 7010019 7010020 7010027 7010026 7010166 7010167 7010174 7010173
 7010018     701 7010020 7010021 7010028 7010027 7010167 7010168 7010175 7010174
 7010019     701 7010022 7010023 7010030 7010029 7010169 7010170 7010177 7010176
 7010020     701 7010023 7010024 7010031 7010030 7010170 7010171 7010178 7010177
$ ... 4780 like lines cut
*END
