*KEYWORD
$#    pidm      pids     iflag
$#  sbacid      nid1      nid2      nid3     igrav    intopt      mass
$#     cid        n1        n2        n3      flag       dir
$#   eid     pid      n1      n2      n3      n4      n5      n6      n7      n8
$#   eid     pid      n1      n2      n3      n4      n5      n6      n7      n8
$#   nid               x               y               z      tc      rc
$ 8100001        0.534227   1.979060e-009        0.235994       0       0
$ 8100002        0.619556   1.979060e-009        0.183848       0       0
$ 8100003        0.534227       -0.100000        0.235994       0       0
$#===============================================================================
$# Helmet model for Project in Biomechanics ans Neuronics SD2450
$# Units are in SI (m, s, kg ...)
$# The helmet shares nodes with the head, so it will look strange if opened alone
$#===============================================================================
*NODE
 4014503        0.489215        0.082857         0.21413     0.0     0.0
 4014504         0.48689        0.084026        0.234558     0.0     0.0
 4014505        0.448063        0.058623        0.256509     0.0     0.0
 4014506        0.457253        0.067798        0.232921     0.0     0.0
 4014507        0.521132        0.085543        0.194247     0.0     0.0
 4014508        0.526536        0.090071        0.208915     0.0     0.0
 4014509        0.493652        0.088713         0.26388     0.0     0.0
 4014510        0.452795        0.059655        0.287121     0.0     0.0
 4014511        0.536443        0.097351        0.233687     0.0     0.0
 4014512        0.504075        0.088158        0.293124     0.0     0.0
 4014513        0.464431         0.05296        0.315851     0.0     0.0
 4014514        0.548316        0.094181        0.262499     0.0     0.0
 4014515        0.530084        0.081556        0.315761     0.0     0.0
 4014516        0.494344        0.056564         0.33541     0.0     0.0
 4014517        0.567056         0.08704        0.289454     0.0     0.0
 4014518        0.556639        0.062743        0.332064     0.0     0.0
 4014519        0.528711        0.052641        0.345801     0.0     0.0
 4014520        0.582339        0.069122         0.31362     0.0     0.0
 4014521        0.576977        0.086521        0.213329     0.0     0.0
 4014522        0.589893        0.085737        0.238204     0.0     0.0
$ ... 66 like lines cut
$# title
$#     pid     secid       mid     eosid      hgid      grav    adpopt      tmid
$#   secid    elform      shrf       nip     propt   qr/irid     icomp     setyp
$#      t1        t2        t3        t4      nloc     marea      idof    edgset
$#     mid        ro         e        pr        da        db  not used
*MAT_ELASTIC
$HMNAME MATS     402MATL1_402                                                               
       402 1161.80661.6400E+09      0.45                              
$# title
$#     pid     secid       mid     eosid      hgid      grav    adpopt      tmid
$#   secid    elform       aet
$#     mid        ro         e        pr      sigy        vf        mu      bulk
$#     lca       lcb       lcc       lcs      lcab      lcbc      lcca      lcsr
$#    eaau      ebbu      eccu      gabu      gbcu      gcau      aopt      macf
$#      xp        yp        zp        a1        a2        a3
$#      d1        d2        d3      tsef      ssef      vref      tref    shdflg
*MAT_MODIFIED_HONEYCOMB
$HMNAME MATS     401MATL126_401                                                             
       401 86.19999738000000.0      0.0510000000.0       0.1      0.05       0.0
   1000009   1000009   1000009        32         0         0         0         0
40000000.040000000.040000000.025000000.025000000.025000000.0       2.0         1
                                     0.0       1.0       0.0
       0.0       1.0       1.0       0.0       0.0       0.0       0.0       0.0
*PART
$HWCOLOR COMPS     401      32
Helmet liner                                                                    
       401       401       401                                                  
$HWCOLOR COMPS     402      33
Helmet shell of plastic                                                         
       402       402       402                                                  
*SECTION_SHELL
$HMNAME PROPS     402SectShll_402                                                            
       402         2       0.0         2                                        
    0.0047    0.0047    0.0047    0.0047                                        
*SECTION_SOLID
$HMNAME PROPS     401SectSld_401                                                             
       401         2          
*ELEMENT_SHELL
 4030086     402 4014504 4014505 4014506 4014503
 4030089     402 4014508 4014504 4014503 4014507
 4030091     402 4014509 4014510 4014505 4014504
 4030092     402 4014511 4014509 4014504 4014508
 4030094     402 4014512 4014513 4014510 4014509
 4030095     402 4014514 4014512 4014509 4014511
 4030096     402 4014515 4014516 4014513 4014512
 4030097     402 4014517 4014515 4014512 4014514
 4030098     402 4014518 4014519 4014516 4014515
 4030099     402 4014520 4014518 4014515 4014517
 4030101     402 4014522 4014514 4014511 4014521
 4030102     402 4014523 4014517 4014514 4014522
 4030104     402 4014526 4014520 4014517 4014523
 4030105     402 4014525 4014523 4014522 4014524
 4030107     402 4014527 4014526 4014523 4014525
 4030108     402 4014505 4014528 4014529 4014506
 4030109     402 4014510 4014532 4014528 4014505
 4030111     402 4014528 4014530 4014531 4014529
 4030113     402 4014532 4014533 4014530 4014528
 4030114     402 4014513 4014534 4014532 4014510
$ ... 54 like lines cut
*ELEMENT_SOLID
 4029936     401     557     555     561     563 4014503 4014506 4014505 4014504
 4029937     401     559     557     563     565 4014507 4014503 4014504 4014508
 4029938     401     563     561     567     569 4014504 4014505 4014510 4014509
 4029939     401     565     563     569     571 4014508 4014504 4014509 4014511
 4029940     401     569     567     573     575 4014509 4014510 4014513 4014512
 4029941     401     571     569     575     577 4014511 4014509 4014512 4014514
 4029942     401     575     573     579     581 4014512 4014513 4014516 4014515
 4029943     401     577     575     581     583 4014514 4014512 4014515 4014517
 4029944     401     581     579     585     587 4014515 4014516 4014519 4014518
 4029945     401     583     581     587     589 4014517 4014515 4014518 4014520
 4029946     401     617     571     577     621 4014521 4014511 4014514 4014522
 4029947     401     621     577     583     625 4014522 4014514 4014517 4014523
 4029948     401     623     621     625     627 4014524 4014522 4014523 4014525
 4029949     401     625     583     589     629 4014523 4014517 4014520 4014526
 4029950     401     627     625     629     631 4014525 4014523 4014526 4014527
 4029951     401     555     634     640     561 4014506 4014529 4014528 4014505
 4029952     401     634     635     641     640 4014529 4014531 4014530 4014528
 4029953     401     561     640     646     567 4014505 4014528 4014532 4014510
 4029954     401     640     641     647     646 4014528 4014530 4014533 4014532
 4029955     401     567     646     652     573 4014510 4014532 4014534 4014513
$ ... 54 like lines cut
*DEFINE_CURVE
$HMNAME CURVES      32LoadCurve_32                                                            
$HWCOLOR CURVES      32      24
$HMCURVE     3    3 LoadCurve32                                                                     
        32         0       1.0 2500000.0       0.0       0.0         0
                 0.0              0.0021
4.00000000000000E-06              0.0022
1.30000000000000E-05              0.0023
5.20000000000000E-05              0.0028
7.00000000000000E-05              0.0029
7.40000000000000E-05               0.003
7.90000000000000E-05              0.0029
7.00000000000000E-05              0.0029
7.40000000000000E-05               0.003
7.00000000000000E-05               0.003
7.90000000000000E-05               0.003
7.40000000000000E-05               0.003
7.40000000000000E-05              0.0029
7.90000000000000E-05              0.0029
7.00000000000000E-05              0.0029
7.40000000000000E-05               0.003
7.40000000000000E-05              0.0029
8.30000000000000E-05              0.0029
7.40000000000000E-05               0.003
$ ... 485 like lines cut
*DEFINE_CURVE
$HMNAME CURVES 1000009LoadCurve_1000009                                                       
$HWCOLOR CURVES 1000009      25
$HMCURVE     2    2 LoadCurve1000009                                                                
   1000009         0       1.0 1000000.0       0.0       0.0         0
                 0.0 7.1815900000000E-04
3.20513000000000E-05 -4.869440000000E-04
2.10623000000000E-04 -9.249960000000E-05
4.16666000000000E-04 -6.057310000000E-04
5.72344000000000E-04 -4.193750000000E-04
7.14285000000000E-04 -8.214110000000E-05
8.56226000000000E-04 -4.597750000000E-04
1.00300000000000E-03 -4.299820000000E-04
             0.00114 -7.865630000000E-05
            0.001291 7.0918900000000E-05
            0.001429 1.2445400000000E-04
            0.001571 2.2382600000000E-04
            0.001712 -1.093110000000E-04
            0.001854 -7.168690000000E-05
            0.001992 2.1347700000000E-05
            0.002147 -1.178500000000E-04
             0.00228 -2.329420000000E-04
            0.002427 -4.742780000000E-05
            0.002569 -3.463770000000E-05
$ ... 5056 like lines cut
*END
