$# LS-DYNA Keyword file created by LS-PrePost(R) V4.8.30 - 20Apr2022
$# Created on Sep-15-2022 (19:26:14)
*KEYWORD
*TITLE
$#                                                                         title
HIII dummy Head
*SECTION_SOLID
$HMNAME PROPS      10SectSld_10
$#   secid    elform       aet    unused    unused    unused    cohoff    unused
        10         2         0                                       0          
*MAT_RIGID
$HMNAME MATS      10MATL20_10
$#     mid        ro         e        pr         n    couple         m     alias
        10  3546.7822.05000E11      0.31       0.0       0.0       0.0          
$#     cmo      con1      con2    
       0.0         0         0
$#lco or a1        a2        a3        v1        v2        v3  
       0.0       0.0       0.0       0.0       0.0       0.0
*PART
$HWCOLOR COMPS      11       4
$#                                                                         title
Scalp
$#     pid     secid       mid     eosid      hgid      grav    adpopt      tmid
        11        11        11         0         0         0         0         0
*SECTION_SOLID
$HMNAME PROPS      11SectSld_11
$#   secid    elform       aet    unused    unused    unused    cohoff    unused
        11         2         0                                       0          
*MAT_VISCOELASTIC
$HMNAME MATS      11MATL6_11
$#     mid        ro      bulk        g0        gi      beta    
        11    1140.05.000000E8   2000000   1000000       5.0
*PART
$HWCOLOR COMPS      91      17
$#                                                                         title
Part_91
$#     pid     secid       mid     eosid      hgid      grav    adpopt      tmid
        91        91        91         0         0         0         0         0
*SECTION_SOLID
$HMNAME PROPS      91SectSld_91
$#   secid    elform       aet    unused    unused    unused    cohoff    unused
        91         2         0                                       0          
*MAT_RIGID
$HMNAME MATS      91MATL20_91
$#     mid        ro         e        pr         n    couple         m     alias
        91    7850.02.05000E12      0.31       0.0       0.0       0.0          
$#     cmo      con1      con2    
       0.0         0         0
$#lco or a1        a2        a3        v1        v2        v3  
       0.0       0.0       0.0       0.0       0.0       0.0
*PART
$HWCOLOR COMPS     301      25
$#                                                                         title
Brain Right Hemisphere
$#     pid     secid       mid     eosid      hgid      grav    adpopt      tmid
       301       301         1         0         0         0         0         0
*SECTION_SOLID
$HMNAME PROPS     301SectSld_301
$#   secid    elform       aet    unused    unused    unused    cohoff    unused
       301         2         0                                       0          
*MAT_OGDEN_RUBBER
$HMNAME MATS       1MATL77B_1
$#     mid        ro        pr         n        nv         g      sigf       ref
         1    1040.0   0.49999         0         0       0.0       0.0       0.0
$#     mu1       mu2       mu3       mu4       mu5       mu6       mu7       mu8
    53.844   -120.41       0.0       0.0       0.0       0.0       0.0       0.0
$#  alpha1    alpha2    alpha3    alpha4    alpha5    alpha6    alpha7    alpha8
    10.057    -12.87       0.0       0.0       0.0       0.0       0.0       0.0
$#      gi     betai     vflag     
  322650.0   1000000         0
$#      gi     betai     vflag     
   77907.0  100000.0         0
$#      gi     betai     vflag     
    6207.3   10000.0         0
$#      gi     betai     vflag     
    7997.0    1000.0         0
$#      gi     betai     vflag     
   1074.16     100.0         0
$#      gi     betai     vflag     
    2953.6      10.0         0
*PART
$HWCOLOR COMPS     302      28
$#                                                                         title
Brain Left Hemisphere
$#     pid     secid       mid     eosid      hgid      grav    adpopt      tmid
       302       301         1         0         0         0         0         0
*PART
$HWCOLOR COMPS     312      29
$#                                                                         title
Falx
$#     pid     secid       mid     eosid      hgid      grav    adpopt      tmid
       312       312      1006         0         0         0         0         0
*SECTION_SHELL
$HMNAME PROPS     312SectShll_312
$#   secid    elform      shrf       nip     propt   qr/irid     icomp     setyp
       312         2       0.0         2       1.0         0         0         1
$#      t1        t2        t3        t4      nloc     marea      idof    edgset
     0.001     0.001     0.001     0.001       0.0       0.0       0.0         0
*MAT_SIMPLIFIED_RUBBER/FOAM
$HMNAME MATS    1006MATL181_1006
$#     mid        ro        km        mu         g      sigf       ref     prten
      1006    1133.01.000000E9       0.0       0.0       0.0       0.0       0.0
$#     sgl        sw        st   lc/tbid   tension     rtype    avgopt   pr/beta
       1.0       1.0       1.0        10       0.0       0.0       0.0       0.0
*MAT_HYPERELASTIC_RUBBER
$HMNAME MATS     301MATL77_301
$#     mid        ro        pr         n        nv         g      sigf       ref
       301    1040.0  0.499994         0         0       0.0       0.0       0.0
$#     c10       c01       c11       c20       c02       c30    therml      
     124.0     138.4       0.0       0.0       0.0       0.0       0.0
$$ HM Number Viscoelastic Constants =          6
$#      gi     betai        gj     sigfj     
    1624.0     125.0       0.0       0.0
$#      gi     betai        gj     sigfj     
     930.0       6.7       0.0       0.0
$#      gi     betai        gj     sigfj     
       0.0       0.0       0.0       0.0
$#      gi     betai        gj     sigfj     
       0.0       0.0       0.0       0.0
$#      gi     betai        gj     sigfj     
       0.0       0.0       0.0       0.0
$#      gi     betai        gj     sigfj     
       0.0       0.0       0.0       0.0
*MAT_ELASTIC
$HMNAME MATS     312MATL1_312
$#     mid        ro         e        pr        da        db  not used        
       312    1133.01.050000E7      0.45       0.0       0.0       0.0
*DEFINE_COORDINATE_NODES
$#     cid        n1        n2        n3      flag       dir   
         1         4        12        18         0X
*DEFINE_CURVE
$HMNAME CURVES      1010LoadCurve_10
$HWCOLOR CURVES      10      10
$HMCURVE     2    2 LoadCurve_10
$#    lcid      sidr       sfa       sfo      offa      offo    dattyp     lcint
        10         0   1000000   1000000       0.0       0.0         0         0
$#                a1                  o1  
                 0.0                 0.0
    1.0285339691e-08            0.015841
    1.8248179856e-08            0.050318
    2.6653399487e-08            0.096909
    3.2293741015e-08            0.144432
    3.8376470002e-08            0.191955
    4.4403890342e-08            0.270228
    5.0984301225e-08            0.365274
    5.7509399909e-08             0.46032
    6.3592132449e-08             0.56282
    6.8734792080e-08            0.665321
    7.3435082015e-08             0.78273
    7.8135371950e-08            0.877776
    8.2337983542e-08            0.987731
    8.6540588029e-08            1.106072
    9.1683261871e-08            1.224414
    9.5885873463e-08            1.358596
    1.0196860245e-07            1.508619
    1.0617119983e-07            1.658643
    1.1037379721e-07            1.807734
$ ... 4 like lines cut
*CONSTRAINED_RIGID_BODIES
$#    pidm      pids     iflag     
        10        91         0
*ELEMENT_SOLID
$#   eid     pid      n1      n2      n3      n4      n5      n6      n7      n8
 4023371      10       1       2       4       3       5       6       8       7
 4023372      10       5       6       8       7       9      10      12      11
 4023373      10       3       4      14      13       7       8      16      15
 4023374      10       7       8      16      15      11      12      18      17
 4023375      10       2      19      20       4       6      21      22       8
 4023376      10       6      21      22       8      10      23      24      12
 4023377      10       4      20      25      14       8      22      26      16
 4023378      10       8      22      26      16      12      24      27      18
 4023379      91      28      29      31      30      32      33       8      34
 4023380      91      32      33       8      34      36      37      39      38
 4023381      91      30      31      41      40      34       8      43      42
 4023382      91      34       8      43      42      38      39      45      44
 4023383      91      29      46      47      31      33      48      49       8
 4023384      91      33      48      49       8      37      50      51      39
 4023385      91      31      47      52      41       8      49      53      43
 4023386      91       8      49      53      43      39      51      54      45
 4023387      10      55      56      58      57      61      62      64      63
 4023388      10      57      58      60      59      63      64      66      65
 4023389      10      61      62      64      63      67      68      70      69
 4023390      10      63      64      66      65      69      70      72      71
$ ... 288 like lines cut
*ELEMENT_SOLID
$#   eid     pid      n1      n2      n3      n4      n5      n6      n7      n8
 4026098     302     288     289 4013553 4013597     282     283 4013931 4013930
 4026099     302 4013584      78     122 4013599 4013933      72     118 4013934
 4026100     302 4013552 4013585 4013598 4013555 4013937 4013940 4013939 4013938
 4026101     302 4013555 4013598 4013594 4013554 4013938 4013939 4013942 4013941
 4026102     302 4013585      35 4013595 4013598 4013940 4013944 4013943 4013939
 4026103     302 4013598 4013595 4013593 4013594 4013939 4013943 4013945 4013942
 4026104     302      35 4013584 4013599 4013595 4013944 4013933 4013934 4013943
 4026105     302 4013596 4013597 4013594 4013593 4013946 4013930 4013942 4013945
 4026106     302 4013599     122     124 4013596 4013934     118     120 4013946
 4026107     302 4013595 4013599 4013596 4013593 4013943 4013934 4013946 4013945
 4026108     302 4013597 4013553 4013554 4013594 4013930 4013931 4013941 4013942
 4026109     302     124     288 4013597 4013596     120     282 4013930 4013946
 4026110     302 4013552 4013618 4013690 4013585 4013937 4013949 4013948 4013940
 4026111     301 4013618 4013552 4013622 4013631 4013949 4013937 4013951 4013950
 4026112     301 4013622 4013552 4013555 4013715 4013951 4013937 4013938 4013952
 4026113     301 4013620     328     326 4013632 4013953     322     320 4013954
 4026114     301     425     176 4013616 4013630     419     170 4013959 4013958
 4026115     301 4013617 4013618 4013631 4013627 4013961 4013949 4013950 4013962
 4026116     301 4013631 4013622 4013621 4013628 4013950 4013951 4013964 4013963
 4026117     301 4013627 4013631 4013628 4013626 4013962 4013950 4013963 4013965
$ ... 76 like lines cut
*ELEMENT_SOLID
$#   eid     pid      n1      n2      n3      n4      n5      n6      n7      n8
 4030182     302     124 4013596 4013597     288     128 4013608 4013611     294
 4030183     302 4013596 4013593 4013594 4013597 4013608 4013601 4013605 4013611
 4030184     302     288 4013597 4013553     289     294 4013611 4013567     295
 4030185     302 4013597 4013594 4013554 4013553 4013611 4013605 4013564 4013567
 4030186     302     128 4013608 4013611     294     132 4013603 4013607     237
 4030187     302 4013608 4013601 4013605 4013611 4013603 4013600 4013604 4013607
 4030188     302     294 4013611 4013567     295     237 4013607 4013566     238
 4030189     302 4013611 4013605 4013564 4013567 4013607 4013604 4013563 4013566
 4030190     302      35 4013588 4013591 4013585 4013595 4013609 4013612 4013598
 4030191     302 4013588 4013586 4013587 4013591 4013609 4013602 4013606 4013612
 4030192     302 4013585 4013591 4013559 4013552 4013598 4013612 4013568 4013555
 4030193     302 4013591 4013587 4013558 4013559 4013612 4013606 4013565 4013568
 4030194     302 4013595 4013609 4013612 4013598 4013593 4013601 4013605 4013594
 4030195     302 4013609 4013602 4013606 4013612 4013601 4013600 4013604 4013605
 4030196     302 4013598 4013612 4013568 4013555 4013594 4013605 4013564 4013554
 4030197     302 4013612 4013606 4013565 4013568 4013605 4013604 4013563 4013564
 4030198     302      90     130     234     214 4013589 4013610 4013613 4013590
 4030199     302     130     132     237     234 4013610 4013603 4013607 4013613
 4030200     302     214     234     235     215 4013590 4013613 4013569 4013557
 4030201     302     234     237     238     235 4013613 4013607 4013566 4013569
$ ... 108 like lines cut
*ELEMENT_SHELL
$#   eid     pid      n1      n2      n3      n4      n5      n6      n7      n8
 4028791     312 4013959     196     164     170       0       0       0       0
 4028820     312 4013553 4013567     295     289       0       0       0       0
 4028821     312     235 4013569 4013557     215       0       0       0       0
 4028824     312 4013558 4013565 4013568 4013559       0       0       0       0
 4028825     312 4013565 4013563 4013564 4013568       0       0       0       0
 4028826     312 4013567 4013566     238     295       0       0       0       0
 4028827     312 4013564 4013563 4013566 4013567       0       0       0       0
 4028828     312 4013566 4013563 4013565 4013569       0       0       0       0
 4028829     312 4013554 4013564 4013567 4013553       0       0       0       0
 4028830     312 4013569 4013565 4013558 4013557       0       0       0       0
 4028831     312     238 4013566 4013569     235       0       0       0       0
 4028832     312     176     182 4013652 4013616       0       0       0       0
 4028834     312 4013651 4013647 4013558 4013559       0       0       0       0
 4028836     312 4013648 4013646 4013647 4013651       0       0       0       0
 4028837     312     212 4013650 4013649     188       0       0       0       0
 4028838     312 4013650 4013647 4013646 4013649       0       0       0       0
 4028839     312 4013652 4013649 4013646 4013648       0       0       0       0
 4028840     312     215 4013557 4013650     212       0       0       0       0
 4028841     312 4013557 4013558 4013647 4013650       0       0       0       0
 4028842     312 4013616 4013652 4013648 4013617       0       0       0       0
$ ... 8 like lines cut
*ELEMENT_SEATBELT_ACCELEROMETER
$#  sbacid      nid1      nid2      nid3     igrav    intopt      mass    
   4023369         8        49        43         0         0       0.0
*NODE
$#   nid               x               y               z      tc      rc  
       1        0.527367          -0.005        0.234322       0       0
       2        0.531633          -0.005        0.231714       0       0
       3        0.527367             0.0        0.234322       0       0
*NODE
$#   nid               x               y               z      tc      rc  
       5        0.529975          -0.005        0.238588       0       0
       6        0.534241          -0.005         0.23598       0       0
       7        0.529975             0.0        0.238588       0       0
       8        0.534241             0.0         0.23598       0       0
       9        0.532583          -0.005        0.242854       0       0
      10        0.536849          -0.005        0.240246       0       0
      11        0.532583             0.0        0.242854       0       0
*NODE
$#   nid               x               y               z      tc      rc  
      13        0.527367           0.005        0.234322       0       0
      14        0.531633           0.005        0.231714       0       0
      15        0.529975           0.005        0.238588       0       0
      16        0.534241           0.005         0.23598       0       0
      17        0.532583           0.005        0.242854       0       0
*NODE
$#   nid               x               y               z      tc      rc  
      19        0.535899          -0.005        0.229106       0       0
      20        0.535899             0.0        0.229106       0       0
      21        0.538507          -0.005        0.233372       0       0
      22        0.538507             0.0        0.233372       0       0
      23        0.541115          -0.005        0.237638       0       0
      24        0.541115             0.0        0.237638       0       0
      25        0.535899           0.005        0.229106       0       0
      26        0.538507           0.005        0.233372       0       0
      27        0.541115           0.005        0.237638       0       0
      28        0.530804         -0.0025        0.235151       0       0
      29        0.532937         -0.0025        0.233847       0       0
      30        0.530804             0.0        0.235151       0       0
      31        0.532937             0.0        0.233847       0       0
      32        0.532108         -0.0025        0.237284       0       0
      33        0.534241         -0.0025         0.23598       0       0
      34        0.532108             0.0        0.237284       0       0
      35        0.549795        0.029365        0.258063       0       0
      36        0.533412         -0.0025        0.239417       0       0
      37        0.535545         -0.0025        0.238113       0       0
      38        0.533412             0.0        0.239417       0       0
$ ... 522 like lines cut
*NODE
$#   nid               x               y               z      tc      rc  
 4013552        0.549795   -6.380483e-18        0.258063       0       0
 4013553         0.60164   -1.035522e-16        0.225667       0       0
 4013554        0.584361   -7.066764e-17        0.236463       0       0
 4013555        0.567073   -3.926506e-17        0.247266       0       0
 4013557        0.572933    4.560958e-16        0.295093       0       0
 4013558        0.565222    7.983229e-17        0.282752       0       0
 4013559        0.557506    3.698830e-16        0.270404       0       0
 4013563        0.589585    2.967716e-17        0.260522       0       0
 4013564        0.587959   -6.885449e-17        0.249991       0       0
 4013565        0.579549    5.066002e-17        0.270331       0       0
 4013566        0.601175    1.206482e-17        0.261238       0       0
 4013567        0.604106    2.834197e-16         0.24347       0       0
 4013568        0.572989   -4.161049e-17        0.259496       0       0
 4013569        0.589633    3.982494e-17        0.278473       0       0
 4013584        0.549795        0.044043        0.258063       0       0
 4013585        0.549795        0.014678        0.258063       0       0
 4013586        0.562073        0.023372        0.277713       0       0
 4013587        0.563663        0.013495        0.280258       0       0
 4013588        0.556884        0.026399        0.269409       0       0
 4013589         0.56565         0.03018        0.283437       0       0
$ ... 142 like lines cut
*END
