*KEYWORD
$#===============================================================================
$# Rink board model for Project in Biomechanics ans Neuronics SD2450
$# Units are in SI (m, s, kg ...)
$#===============================================================================
*PART
$# title
Rink board of plastic                                                           
$#     pid     secid       mid     eosid      hgid      grav    adpopt      tmid
       502       502       502
*SECTION_SHELL
$#   secid    elform      shrf       nip     propt   qr/irid     icomp     setyp
       502         2  0.833333         2
$#      t1        t2        t3        t4      nloc     marea      idof    edgset
  0.010000  0.010000  0.010000  0.010000
*MAT_ELASTIC
$#     mid        ro         e        pr        da        db  not used
       502 1500.0000 6.5000E+9  0.300000
$#===============================================================================
$# Boundary Conditions (BC)
$# The BC:s are here set on the wall to be constrained in all degrees of freedom
$# You can display this by looking at the node set 51000 or the Boundary Spc
$#===============================================================================  
*BOUNDARY_SPC_SET
$#    nsid       cid      dofx      dofy      dofz     dofrx     dofry     dofrz
     51000         0         1         1         1         1         1         1
*SET_NODE_LIST
$#     sid       da1       da2       da3       da4    solver
     51000     0.000     0.000     0.000     0.000MECH
$#    nid1      nid2      nid3      nid4      nid5      nid6      nid7      nid8
   5020001   5020002   5020003   5020004   5020005   5020006   5020007   5020008
   5020009   5020010   5020011   5020012   5020013   5020014   5020015   5020016
   5020017   5020018   5020019   5020020   5020021   5020022   5020023   5020024
   5020025   5020026   5020027   5020028   5020029   5020030   5020031   5020032
   5020033   5020034   5020035   5020036   5020037   5020038   5020039   5020040
   5020041   5020042   5020082   5020083   5020123   5020124   5020164   5020165
   5020205   5020206   5020246   5020247   5020287   5020288   5020328   5020329
   5020369   5020370   5020410   5020411   5020451   5020452   5020492   5020493
   5020533   5020534   5020574   5020575   5020615   5020616   5020656   5020657
   5020697   5020698   5020738   5020739   5020779   5020780   5020820   5020821
   5020822   5020823   5020824   5020825   5020826   5020827   5020828   5020829
   5020830   5020831   5020832   5020833   5020834   5020835   5020836   5020837
   5020838   5020839   5020840   5020841   5020842   5020843   5020844   5020845
   5020846   5020847   5020848   5020849   5020850   5020851   5020852   5020853
   5020854   5020855   5020856   5020857   5020858   5020859   5020860   5020861
$#============ Mesh ============================================================
*ELEMENT_SHELL
$#   eid     pid      n1      n2      n3      n4      n5      n6      n7      n8
 5020001     502 5020042 5020043 5020002 5020001       0       0       0       0
 5020002     502 5020043 5020044 5020003 5020002       0       0       0       0
 5020003     502 5020044 5020045 5020004 5020003       0       0       0       0
 5020004     502 5020045 5020046 5020005 5020004       0       0       0       0
 5020005     502 5020046 5020047 5020006 5020005       0       0       0       0
 5020006     502 5020047 5020048 5020007 5020006       0       0       0       0
 5020007     502 5020048 5020049 5020008 5020007       0       0       0       0
 5020008     502 5020049 5020050 5020009 5020008       0       0       0       0
 5020009     502 5020050 5020051 5020010 5020009       0       0       0       0
 5020010     502 5020051 5020052 5020011 5020010       0       0       0       0
 5020011     502 5020052 5020053 5020012 5020011       0       0       0       0
 5020012     502 5020053 5020054 5020013 5020012       0       0       0       0
 5020013     502 5020054 5020055 5020014 5020013       0       0       0       0
 5020014     502 5020055 5020056 5020015 5020014       0       0       0       0
 5020015     502 5020056 5020057 5020016 5020015       0       0       0       0
 5020016     502 5020057 5020058 5020017 5020016       0       0       0       0
 5020017     502 5020058 5020059 5020018 5020017       0       0       0       0
 5020018     502 5020059 5020060 5020019 5020018       0       0       0       0
 5020019     502 5020060 5020061 5020020 5020019       0       0       0       0
 5020020     502 5020061 5020062 5020021 5020020       0       0       0       0
$ ... 780 like lines cut
*NODE
$#   nid               x               y               z      tc      rc
 5020001        0.666000       -0.250000       -0.435000       0       0
 5020002        0.666000       -0.250000       -0.410000       0       0
 5020003        0.666000       -0.250000       -0.385000       0       0
 5020004        0.666000       -0.250000       -0.360000       0       0
 5020005        0.666000       -0.250000       -0.335000       0       0
 5020006        0.666000       -0.250000       -0.310000       0       0
 5020007        0.666000       -0.250000       -0.285000       0       0
 5020008        0.666000       -0.250000       -0.260000       0       0
 5020009        0.666000       -0.250000       -0.235000       0       0
 5020010        0.666000       -0.250000       -0.210000       0       0
 5020011        0.666000       -0.250000       -0.185000       0       0
 5020012        0.666000       -0.250000       -0.160000       0       0
 5020013        0.666000       -0.250000       -0.135000       0       0
 5020014        0.666000       -0.250000       -0.110000       0       0
 5020015        0.666000       -0.250000       -0.085000       0       0
 5020016        0.666000       -0.250000       -0.060000       0       0
 5020017        0.666000       -0.250000       -0.035000       0       0
 5020018        0.666000       -0.250000       -0.010000       0       0
 5020019        0.666000       -0.250000        0.015000       0       0
 5020020        0.666000       -0.250000        0.040000       0       0
$ ... 841 like lines cut
*END
