$# LS-DYNA Keyword file created by LS-PrePost(R) V4.8.30 - 20Apr2022
$# Created on Sep-19-2022 (12:20:55)
*KEYWORD
*TITLE
$#                                                                         title
HII Dummy Neck and Torso
*PART
$HWCOLOR COMPS      12       5
$#                                                                         title
Skin of upper body
$#     pid     secid       mid     eosid      hgid      grav    adpopt      tmid
        12        12        12         0         0         0         0         0
*SECTION_SOLID
$HMNAME PROPS      12SectSld_12
$#   secid    elform       aet    unused    unused    unused    cohoff    unused
        12         2         0                                       0          
*MAT_RIGID
$HMNAME MATS      12MATL20_12
$#     mid        ro         e        pr         n    couple         m     alias
        12    2550.02.05000E11      0.31       0.0       0.0       0.0          
$#     cmo      con1      con2    
       0.0         0         0
$#lco or a1        a2        a3        v1        v2        v3  
       0.0       0.0       0.0       0.0       0.0       0.0
*PART
$HWCOLOR COMPS      13       6
$#                                                                         title
Outer surface for skin of upper body
$#     pid     secid       mid     eosid      hgid      grav    adpopt      tmid
        13        13        13         0         0         0         0         0
*SECTION_SHELL
$HMNAME PROPS      13SectShll_13
$#   secid    elform      shrf       nip     propt   qr/irid     icomp     setyp
        13         2       0.0         0       1.0         0         0         1
$#      t1        t2        t3        t4      nloc     marea      idof    edgset
     0.001     0.001     0.001     0.001       0.0       0.0       0.0         0
*MAT_RIGID
$HMNAME MATS      13MATL20_13
$#     mid        ro         e        pr         n    couple         m     alias
        13     500.02.050000E8      0.31       0.0       0.0       0.0          
$#     cmo      con1      con2    
       0.0         0         0
$#lco or a1        a2        a3        v1        v2        v3  
       0.0       0.0       0.0       0.0       0.0       0.0
*SECTION_SHELL
$HMNAME PROPS      14SectShll_14
$#   secid    elform      shrf       nip     propt   qr/irid     icomp     setyp
        14         2       0.0         0       1.0         0         0         1
$#      t1        t2        t3        t4      nloc     marea      idof    edgset
       0.0       0.0       0.0       0.0       0.0       0.0       0.0         0
*MAT_RIGID
$HMNAME MATS      14MATL20_14
$#     mid        ro         e        pr         n    couple         m     alias
        14  98192.942.05000E11      0.31       0.0       0.0       0.0          
$#     cmo      con1      con2    
       0.0         0         0
$#lco or a1        a2        a3        v1        v2        v3  
       0.0       0.0       0.0       0.0       0.0       0.0
*PART
$HWCOLOR COMPS      39       8
$#                                                                         title
Rigid body defining the lower lumbar area
$#     pid     secid       mid     eosid      hgid      grav    adpopt      tmid
        39        39        39         0         0         0         0         0
*SECTION_SOLID
$HMNAME PROPS      39SectSld_39
$#   secid    elform       aet    unused    unused    unused    cohoff    unused
        39         2         0                                       0          
*MAT_RIGID
$HMNAME MATS      39MATL20_39
$#     mid        ro         e        pr         n    couple         m     alias
        39    2550.02.05000E11      0.31       0.0       0.0       0.0          
$#     cmo      con1      con2    
       0.0         0         0
$#lco or a1        a2        a3        v1        v2        v3  
       0.0       0.0       0.0       0.0       0.0       0.0
*PART
$HWCOLOR COMPS      40       9
$#                                                                         title
Rigid body defining the lower lumbar area.1
$#     pid     secid       mid     eosid      hgid      grav    adpopt      tmid
        40        40        40         0         0         0         0         0
*SECTION_SOLID
$HMNAME PROPS      40SectSld_40
$#   secid    elform       aet    unused    unused    unused    cohoff    unused
        40         2         0                                       0          
*MAT_RIGID
$HMNAME MATS      40MATL20_40
$#     mid        ro         e        pr         n    couple         m     alias
        40    2700.07.00000E10      0.31       0.0       0.0       0.0          
$#     cmo      con1      con2    
       0.0         0         0
$#lco or a1        a2        a3        v1        v2        v3  
       0.0       0.0       0.0       0.0       0.0       0.0
*PART
$HWCOLOR COMPS      41      13
$#                                                                         title
Rigid body defining the lower lumbar area.2
$#     pid     secid       mid     eosid      hgid      grav    adpopt      tmid
        41        41        41         0         0         0         0         0
*SECTION_SHELL
$HMNAME PROPS      41SectShll_41
$#   secid    elform      shrf       nip     propt   qr/irid     icomp     setyp
        41         2       0.0         0       1.0         0         0         1
$#      t1        t2        t3        t4      nloc     marea      idof    edgset
1.00000E-41.00000E-41.00000E-41.00000E-4       0.0       0.0       0.0         0
*MAT_RIGID
$HMNAME MATS      41MATL20_41
$#     mid        ro         e        pr         n    couple         m     alias
        41    7850.02.05000E11      0.31       0.0       0.0       0.0          
$#     cmo      con1      con2    
       0.0         0         0
$#lco or a1        a2        a3        v1        v2        v3  
       0.0       0.0       0.0       0.0       0.0       0.0
*PART
$HWCOLOR COMPS      92      20
$#                                                                         title
Part_92
$#     pid     secid       mid     eosid      hgid      grav    adpopt      tmid
        92        92        92         0         0         0         0         0
*SECTION_SOLID
$HMNAME PROPS      92SectSld_92
$#   secid    elform       aet    unused    unused    unused    cohoff    unused
        92         2         0                                       0          
*MAT_RIGID
$HMNAME MATS      92MATL20_92
$#     mid        ro         e        pr         n    couple         m     alias
        92    7850.02.05000E12      0.31       0.0       0.0       0.0          
$#     cmo      con1      con2    
       0.0         0         0
$#lco or a1        a2        a3        v1        v2        v3  
       0.0       0.0       0.0       0.0       0.0       0.0
*PART
$HWCOLOR COMPS      94      21
$#                                                                         title
Rotational Spring for extraction of neck moment (c.f. deforc)
$#     pid     secid       mid     eosid      hgid      grav    adpopt      tmid
        94        94        94         0         0         0         0         0
*SECTION_DISCRETE
$HMNAME PROPS      94SectDisc_94
$#   secid       dro        kd        v0        cl        fd  
        94         1       0.0       0.0       0.0       0.0
$#     cdl       tdl   
       0.0       0.0
*MAT_SPRING_NONLINEAR_ELASTIC
$HMNAME MATS      94MATSD4_94
$#     mid       lcd       lcr   
        94        11         0
*PART
$HWCOLOR COMPS      95      24
$#                                                                         title
Rotational Damper
$#     pid     secid       mid     eosid      hgid      grav    adpopt      tmid
        95        95        95         0         0         0         0         0
*SECTION_DISCRETE
$HMNAME PROPS      95SectDisc_95
$#   secid       dro        kd        v0        cl        fd  
        95         1       0.0       0.0       0.0       0.0
$#     cdl       tdl   
       0.0       0.0
*MAT_DAMPER_VISCOUS
$HMNAME MATS      95MATSD2_95
$#     mid        dc  
        95       2.0
*PART
$HWCOLOR COMPS 8100001      40
$#                                                                         title
NECKSUP
$#     pid     secid       mid     eosid      hgid      grav    adpopt      tmid
   8100001   8100001   8100001         0         0         0         0         0
*SECTION_SOLID
$HMNAME PROPS 8100001SectSld_8100001
$#   secid    elform       aet    unused    unused    unused    cohoff    unused
   8100001         0         0                                       0          
*MAT_RIGID
$HMNAME MATS 8100001MATL20_8100001
$#     mid        ro         e        pr         n    couple         m     alias
   8100001    2700.07.00000E10      0.31       0.0       0.0       0.0          
$#     cmo      con1      con2    
       0.0         0         0
$#lco or a1        a2        a3        v1        v2        v3  
       0.0       0.0       0.0       0.0       0.0       0.0
*PART
$HWCOLOR COMPS 8100002      41
$#                                                                         title
HEADSUP
$#     pid     secid       mid     eosid      hgid      grav    adpopt      tmid
   8100002   8100002   8100002         0         0         0         0         0
*SECTION_SOLID
$HMNAME PROPS 8100002SectSld_8100002
$#   secid    elform       aet    unused    unused    unused    cohoff    unused
   8100002         0         0                                       0          
*MAT_RIGID
$HMNAME MATS 8100002MATL20_8100002
$#     mid        ro         e        pr         n    couple         m     alias
   8100002    2700.07.00000E10      0.31       0.0       0.0       0.0          
$#     cmo      con1      con2    
       0.0         0         0
$#lco or a1        a2        a3        v1        v2        v3  
   8100006       0.0       0.0       0.0       0.0       0.0
*PART
$HWCOLOR COMPS 8100003      44
$#                                                                         title
NECK_3
$#     pid     secid       mid     eosid      hgid      grav    adpopt      tmid
   8100003   8100003   8100003         0         0         0         0         0
*SECTION_SOLID
$HMNAME PROPS 8100003SectSld_8100003
$#   secid    elform       aet    unused    unused    unused    cohoff    unused
   8100003         0         0                                       0          
*MAT_RIGID
$HMNAME MATS 8100003MATL20_8100003
$#     mid        ro         e        pr         n    couple         m     alias
   8100003    2700.07.00000E10      0.31       0.0       0.0       0.0          
$#     cmo      con1      con2    
       0.0         0         0
$#lco or a1        a2        a3        v1        v2        v3  
       0.0       0.0       0.0       0.0       0.0       0.0
*PART
$HWCOLOR COMPS 8100004      48
$#                                                                         title
NECK_2
$#     pid     secid       mid     eosid      hgid      grav    adpopt      tmid
   8100004   8100004   8100004         0         0         0         0         0
*SECTION_SOLID
$HMNAME PROPS 8100004SectSld_8100004
$#   secid    elform       aet    unused    unused    unused    cohoff    unused
   8100004         0         0                                       0          
*MAT_RIGID
$HMNAME MATS 8100004MATL20_8100004
$#     mid        ro         e        pr         n    couple         m     alias
   8100004    2700.07.00000E10      0.31       0.0       0.0       0.0          
$#     cmo      con1      con2    
       0.0         0         0
$#lco or a1        a2        a3        v1        v2        v3  
       0.0       0.0       0.0       0.0       0.0       0.0
*PART
$HWCOLOR COMPS 8100005      49
$#                                                                         title
NECK_1
$#     pid     secid       mid     eosid      hgid      grav    adpopt      tmid
   8100005   8100005   8100005         0         0         0         0         0
*SECTION_SOLID
$HMNAME PROPS 8100005SectSld_8100005
$#   secid    elform       aet    unused    unused    unused    cohoff    unused
   8100005         0         0                                       0          
*MAT_RIGID
$HMNAME MATS 8100005MATL20_8100005
$#     mid        ro         e        pr         n    couple         m     alias
   8100005    2700.07.00000E10      0.31       0.0       0.0       0.0          
$#     cmo      con1      con2    
       0.0         0         0
$#lco or a1        a2        a3        v1        v2        v3  
       0.0       0.0       0.0       0.0       0.0       0.0
*PART
$HWCOLOR COMPS 8100006      52
$#                                                                         title
NODJTCTR
$#     pid     secid       mid     eosid      hgid      grav    adpopt      tmid
   8100006   8100006   8100006         0         0         0         0         0
*SECTION_SOLID
$HMNAME PROPS 8100006SectSld_8100006
$#   secid    elform       aet    unused    unused    unused    cohoff    unused
   8100006         0         0                                       0          
*MAT_RIGID
$HMNAME MATS 8100006MATL20_8100006
$#     mid        ro         e        pr         n    couple         m     alias
   8100006      10.02.05000E11      0.31       0.0       0.0       0.0          
$#     cmo      con1      con2    
       0.0         0         0
$#lco or a1        a2        a3        v1        v2        v3  
       0.0       0.0       0.0       0.0       0.0       0.0
*PART
$HWCOLOR COMPS 8100007      53
$#                                                                         title
NE_COMS1
$#     pid     secid       mid     eosid      hgid      grav    adpopt      tmid
   8100007   8100007   8100007         0         0         0         0         0
*SECTION_SOLID
$HMNAME PROPS 8100007SectSld_8100007
$#   secid    elform       aet    unused    unused    unused    cohoff    unused
   8100007         0         0                                       0          
*MAT_RIGID
$HMNAME MATS 8100007MATL20_8100007
$#     mid        ro         e        pr         n    couple         m     alias
   8100007  500000.02.05000E11      0.31       0.0       0.0       0.0          
$#     cmo      con1      con2    
       0.0         0         0
$#lco or a1        a2        a3        v1        v2        v3  
       0.0       0.0       0.0       0.0       0.0       0.0
*PART
$HWCOLOR COMPS 8100008      56
$#                                                                         title
NE_COMS2
$#     pid     secid       mid     eosid      hgid      grav    adpopt      tmid
   8100008   8100008   8100008         0         0         0         0         0
*SECTION_SOLID
$HMNAME PROPS 8100008SectSld_8100008
$#   secid    elform       aet    unused    unused    unused    cohoff    unused
   8100008         0         0                                       0          
*MAT_RIGID
$HMNAME MATS 8100008MATL20_8100008
$#     mid        ro         e        pr         n    couple         m     alias
   8100008  500000.02.05000E11      0.31       0.0       0.0       0.0          
$#     cmo      con1      con2    
       0.0         0         0
$#lco or a1        a2        a3        v1        v2        v3  
       0.0       0.0       0.0       0.0       0.0       0.0
*PART
$HWCOLOR COMPS 8100012      57
$#                                                                         title
NECKNULL
$#     pid     secid       mid     eosid      hgid      grav    adpopt      tmid
   8100012   8100012   8100012         0         0         0         0         0
*SECTION_SHELL
$HMNAME PROPS 8100012SectShll_8100012
$#   secid    elform      shrf       nip     propt   qr/irid     icomp     setyp
   8100012         2       0.0         1       1.0         0         0         1
$#      t1        t2        t3        t4      nloc     marea      idof    edgset
5.00000E-45.00000E-45.00000E-45.00000E-4       0.0       0.0       0.0         0
*MAT_NULL
$HMNAME MATS 8100012MATL9_8100012
$#     mid        ro        pc        mu     terod     cerod        ym        pr
   8100012    2700.0       0.0       0.0       0.0       0.07.000000E9      0.31
*PART
$HWCOLOR COMPS 8100014      60
$#                                                                         title
Spring-Damper Part Definition.
$#     pid     secid       mid     eosid      hgid      grav    adpopt      tmid
   8100014   8100014   8100014         0         0         0         0         0
*SECTION_DISCRETE
$HMNAME PROPS 8100014SectDisc_8100014
$#   secid       dro        kd        v0        cl        fd  
   8100014         0       0.0       0.0       0.0       0.0
$#     cdl       tdl   
       0.0       0.0
*MAT_DAMPER_VISCOUS
$HMNAME MATS 8100014MATSD2_8100014
$#     mid        dc  
   8100014   20000.0
*DEFINE_COORDINATE_NODES
$#     cid        n1        n2        n3      flag       dir   
         2      2440      2448      2449         0X
*DEFINE_COORDINATE_NODES
$#     cid        n1        n2        n3      flag       dir   
   8100002   8100783   8100785   8100784         0X
*DEFINE_COORDINATE_NODES_TITLE
OccipCondUpr
$#     cid        n1        n2        n3      flag       dir   
   8100005   8101173   8101174   8101175         0X
*DEFINE_COORDINATE_NODES_TITLE
OccipCondLwr
$#     cid        n1        n2        n3      flag       dir   
   8100006   8101176   8101177   8101178         0X
*DEFINE_CURVE
$HMNAME CURVES      11LoadCurve_11
$HWCOLOR CURVES      11       3
$HMCURVE     3    3 LoadCurve11
$#    lcid      sidr       sfa       sfo      offa      offo    dattyp     lcint
        11         0       1.0       1.0       0.0       0.0         0         0
$#                a1                  o1  
             -0.0873               -26.0
             -0.0698               -14.5
             -0.0523                -8.5
             -0.0349                -5.8
             -0.0174                -2.5
                 0.0                 0.0
              0.0174                 2.5
              0.0349                 5.8
              0.0523                 8.5
              0.0698                14.5
              0.0873                26.0
*DEFINE_CURVE
$HMNAME CURVES 8100001LoadCurve_8100001
$HWCOLOR CURVES 8100001       4
$HMCURVE     2    2 LoadCurve8100001
$#    lcid      sidr       sfa       sfo      offa      offo    dattyp     lcint
   8100001         0   0.01745       1.0       0.0       0.0         0         0
$#                a1                  o1  
               -18.0              -145.0
               -17.0              -110.0
               -16.0               -85.0
               -15.0               -66.0
               -14.0               -52.0
               -13.0               -42.0
               -12.0               -35.0
               -11.0               -30.0
               -10.0               -26.0
                -9.0               -22.5
                -1.0                -2.5
                 0.0                 0.0
                 1.0                 5.5
                 9.0                49.5
                10.0                57.2
                11.0                66.0
                12.0                77.0
                13.0                92.4
                14.0               114.4
                15.0               145.2
                16.0               187.0
                17.0               242.0
                18.0               319.5
*DEFINE_CURVE
$HMNAME CURVES 8100002LoadCurve_8100002
$HWCOLOR CURVES 8100002       5
$HMCURVE     3    3 LoadCurve8100002
$#    lcid      sidr       sfa       sfo      offa      offo    dattyp     lcint
   8100002         0   0.01745  0.147089       0.0       0.0         0         0
$#                a1                  o1  
              -100.0             -2630.7
               -22.0              -782.1
               -14.0              -159.3
                -5.0               -90.0
                -3.0               -62.1
                -1.0               -26.1
                 0.0                 0.0
                 1.0               120.0
                 3.0               225.0
                 5.0               300.0
                13.0               475.0
                15.0               600.0
                20.0              4000.0
               100.0              6100.0
*DEFINE_CURVE
$HMNAME CURVES 8100003LoadCurve_8100003
$HWCOLOR CURVES 8100003       6
$HMCURVE     1    1 LoadCurve8100003
$#    lcid      sidr       sfa       sfo      offa      offo    dattyp     lcint
   8100003         0   0.01745  0.113145       0.0       0.0         0         0
$#                a1                  o1  
               -20.0             -1100.0
               -10.0              -600.0
                -5.0              -350.0
                -1.0              -150.0
                 0.0                 0.0
                 1.0               150.0
                 5.0               350.0
                10.0               600.0
                20.0              1100.0
*DEFINE_CURVE
$HMNAME CURVES 8100004LoadCurve_8100004
$HWCOLOR CURVES 8100004       7
$HMCURVE     2    2 LoadCurve8100004
$#    lcid      sidr       sfa       sfo      offa      offo    dattyp     lcint
   8100004         0   0.01745  0.113145       0.0       0.0         0         0
$#                a1                  o1  
               -20.0              -224.0
               -15.0              -150.0
                -5.0              -110.0
                 0.0                 0.0
                 5.0               110.0
                10.0               150.0
                20.0               224.0
*DEFINE_CURVE
$HMNAME CURVES 8100005LoadCurve_8100005
$HWCOLOR CURVES 8100005       8
$HMCURVE     3    3 LoadCurve8100005
$#    lcid      sidr       sfa       sfo      offa      offo    dattyp     lcint
   8100005         0   0.01745     0.098       0.0       0.0         0         0
$#                a1                  o1  
             -1000.0              -460.0
                 0.0                 0.0
              1000.0              1200.0
*DEFINE_CURVE
$HMNAME CURVES 8100006LoadCurve_8100006
$HWCOLOR CURVES 8100006       9
$HMCURVE     1    1 LoadCurve8100006
$#    lcid      sidr       sfa       sfo      offa      offo    dattyp     lcint
   8100006         0   0.01745     0.098       0.0       0.0         0         0
$#                a1                  o1  
             -1000.0             -1200.0
                 0.0                 0.0
              1000.0              1200.0
*DEFINE_CURVE
$HMNAME CURVES 8100007LoadCurve_8100007
$HWCOLOR CURVES 8100007      13
$HMCURVE     2    2 LoadCurve8100007
$#    lcid      sidr       sfa       sfo      offa      offo    dattyp     lcint
   8100007         0   0.01745     0.098       0.0       0.0         0         0
$#                a1                  o1  
             -1000.0             -1200.0
                 0.0                 0.0
              1000.0              1200.0
*DEFINE_CURVE
$HMNAME CURVES 8100008LoadCurve_8100008
$HWCOLOR CURVES 8100008      17
$HMCURVE     3    3 LoadCurve8100008
$#    lcid      sidr       sfa       sfo      offa      offo    dattyp     lcint
   8100008         0       1.0       1.0       0.0       0.0         0         0
$#                a1                  o1  
                -1.0              -200.0
                 0.0                 0.0
                 1.0               200.0
*DEFINE_CURVE
$HMNAME CURVES 8100009LoadCurve_8100009
$HWCOLOR CURVES 8100009      20
$HMCURVE     1    1 LoadCurve8100009
$#    lcid      sidr       sfa       sfo      offa      offo    dattyp     lcint
   8100009         0    1000.0       1.0       0.0       0.0         0         0
$#                a1                  o1  
                -1.0            -20000.0
                 0.0                 0.0
                 1.0             20000.0
*DEFINE_CURVE
$HMNAME CURVES 8100010LoadCurve_8100010
$HWCOLOR CURVES 8100010      21
$HMCURVE     2    2 LoadCurve8100010
$#    lcid      sidr       sfa       sfo      offa      offo    dattyp     lcint
   8100010         0    1000.0       0.4       0.0       0.0         0         0
$#                a1                  o1  
                -1.0            -10300.0
                 0.0                 0.0
                 1.0                 0.0
$$
$$ Sets Defined In HyperMesh
$$
*DEFINE_SD_ORIENTATION
$HMNAME VECTORCOL       1misc1
$HWCOLOR VECTORCOL       1      11
$#     vid       iop        xt        yt        zt      nid1      nid2    
        72         2       0.0       0.0       0.0      2424      2432
*DEFINE_SD_ORIENTATION
$#     vid       iop        xt        yt        zt      nid1      nid2    
        82         2       0.0       0.0       0.0      2428      2434
*DEFINE_SD_ORIENTATION
$#     vid       iop        xt        yt        zt      nid1      nid2    
   8100001         2       0.0       0.0       0.0   8100089   8100007
*CONSTRAINED_EXTRA_NODES_SET
$HMNAME GROUPS       3XtraNodes_3
$HWCOLOR GROUPS       3       8
$#     pid      nsid     iflag     
        14        13         0
*SET_NODE_LIST
$HMSET
$HMNAME SETS      13Set_13
$#     sid       da1       da2       da3       da4    solver      
        13       0.0       0.0       0.0       0.0MECH
$#    nid1      nid2      nid3      nid4      nid5      nid6      nid7      nid8
      2423      2424      2427      2428      5238      5240         0         0
*CONSTRAINED_EXTRA_NODES_SET
$HMNAME GROUPS       4XtraNodes_4
$HWCOLOR GROUPS       4       9
$#     pid      nsid     iflag     
        14        14         0
*SET_NODE_LIST
$HMSET
$HMNAME SETS      14Set_14
$#     sid       da1       da2       da3       da4    solver      
        14       0.0       0.0       0.0       0.0MECH
$#    nid1      nid2      nid3      nid4      nid5      nid6      nid7      nid8
      2425      2426      2432         0         0         0         0         0
*CONSTRAINED_EXTRA_NODES_SET
$HMNAME GROUPS       5XtraNodes_5
$HWCOLOR GROUPS       5      13
$#     pid      nsid     iflag     
        14        15         0
*SET_NODE_LIST
$HMSET
$HMNAME SETS      15Set_15
$#     sid       da1       da2       da3       da4    solver      
        15       0.0       0.0       0.0       0.0MECH
$#    nid1      nid2      nid3      nid4      nid5      nid6      nid7      nid8
      2429      2430      2434         0         0         0         0         0
*CONSTRAINED_EXTRA_NODES_SET
$HMNAME GROUPS       6XtraNodes_6
$HWCOLOR GROUPS       6      17
$#     pid      nsid     iflag     
        41        16         0
*SET_NODE_LIST
$HMSET
$HMNAME SETS      16Set_16
$#     sid       da1       da2       da3       da4    solver      
        16       0.0       0.0       0.0       0.0MECH
$#    nid1      nid2      nid3      nid4      nid5      nid6      nid7      nid8
      5234      5236      5237      5239         0         0         0         0
*CONSTRAINED_EXTRA_NODES_SET
$HMNAME GROUPS       7XtraNodes_7
$HWCOLOR GROUPS       7      20
$#     pid      nsid     iflag     
        14        17         0
*SET_NODE_LIST
$HMSET
$HMNAME SETS      17Set_17
$#     sid       da1       da2       da3       da4    solver      
        17       0.0       0.0       0.0       0.0MECH
$#    nid1      nid2      nid3      nid4      nid5      nid6      nid7      nid8
      5233      5235         0         0         0         0         0         0
*CONSTRAINED_EXTRA_NODES_SET
$HMNAME GROUPS       8XtraNodes_8
$HWCOLOR GROUPS       8      21
$#     pid      nsid     iflag     
   8100002   8100001         0
*SET_NODE_LIST
$HMSET
$HMNAME SETS 8100001Set_8100001
$#     sid       da1       da2       da3       da4    solver      
   8100001       0.0       0.0       0.0       0.0MECH
$#    nid1      nid2      nid3      nid4      nid5      nid6      nid7      nid8
   8100086   8100087   8100088   8100089   8100798   8100799   8100800   8101165
   8101166   8101167   8101168   8101176   8101177   8101178         0         0
*CONSTRAINED_EXTRA_NODES_SET
$HMNAME GROUPS       9XtraNodes_9
$HWCOLOR GROUPS       9      24
$#     pid      nsid     iflag     
   8100003   8100002         0
*SET_NODE_LIST
$HMSET
$HMNAME SETS 8100002Set_8100002
$#     sid       da1       da2       da3       da4    solver      
   8100002       0.0       0.0       0.0       0.0MECH
$#    nid1      nid2      nid3      nid4      nid5      nid6      nid7      nid8
   8100250   8100251   8100777   8100778   8100779   8101141   8101142   8101147
   8101148   8101149   8101150   8101151   8101152         0         0         0
*CONSTRAINED_EXTRA_NODES_SET
$HMNAME GROUPS       2XtraNodes_2
$HWCOLOR GROUPS       2      25
$#     pid      nsid     iflag     
   8100004   8100003         0
*SET_NODE_LIST
$HMSET
$HMNAME SETS 8100003Set_8100003
$#     sid       da1       da2       da3       da4    solver      
   8100003       0.0       0.0       0.0       0.0MECH
$#    nid1      nid2      nid3      nid4      nid5      nid6      nid7      nid8
   8100252   8100253   8100783   8100784   8100785   8101137   8101138   8101139
   8101140   8101143   8101144   8101145   8101146         0         0         0
*CONSTRAINED_EXTRA_NODES_SET
$HMNAME GROUPS      11XtraNodes_11
$HWCOLOR GROUPS      11      28
$#     pid      nsid     iflag     
   8100005   8100004         0
*SET_NODE_LIST
$HMSET
$HMNAME SETS 8100004Set_8100004
$#     sid       da1       da2       da3       da4    solver      
   8100004       0.0       0.0       0.0       0.0MECH
$#    nid1      nid2      nid3      nid4      nid5      nid6      nid7      nid8
   8100254   8100255   8100791   8100792   8100793   8101153   8101154   8101155
   8101156   8101157   8101158   8101159   8101160         0         0         0
*CONSTRAINED_EXTRA_NODES_SET
$HMNAME GROUPS      12XtraNodes_12
$HWCOLOR GROUPS      12      29
$#     pid      nsid     iflag     
        10   8100007         0
*SET_NODE_LIST
$HMSET
$HMNAME SETS 8100007Set_8100007
$#     sid       da1       da2       da3       da4    solver      
   8100007       0.0       0.0       0.0       0.0MECH
$#    nid1      nid2      nid3      nid4      nid5      nid6      nid7      nid8
   8100005   8100006   8100007   8101128   8101130   8101132   8101173   8101174
   8101175         0         0         0         0         0         0         0
*CONSTRAINED_EXTRA_NODES_SET
$HMNAME GROUPS      13XtraNodes_13
$HWCOLOR GROUPS      13      32
$#     pid      nsid     iflag     
   8100001   8100008         0
*SET_NODE_LIST
$HMSET
$HMNAME SETS 8100008Set_8100008
$#     sid       da1       da2       da3       da4    solver      
   8100008       0.0       0.0       0.0       0.0MECH
$#    nid1      nid2      nid3      nid4      nid5      nid6      nid7      nid8
   8100053   8101134   8101135   8101136   8101161   8101162   8101163   8101164
*CONSTRAINED_EXTRA_NODES_SET
$HMNAME GROUPS      14XtraNodes_14
$HWCOLOR GROUPS      14      33
$#     pid      nsid     iflag     
   8100001   8100010         0
*SET_NODE_LIST
$HMSET
$HMNAME SETS 8100010Set_8100010
$#     sid       da1       da2       da3       da4    solver      
   8100010       0.0       0.0       0.0       0.0MECH
$#    nid1      nid2      nid3      nid4      nid5      nid6      nid7      nid8
   8101185   8101186   8101187   8101188   8101189   8101190   8101191         0
*CONSTRAINED_JOINT_REVOLUTE_ID
$HMNAME COMPS 8100017ConJoint4Node
$HWCOLOR COMPS 8100017       3
$#     jid                                                                 title
   4030316                                                                      
$#      n1        n2        n3        n4        n5        n6       rps      damp
      2423      2425      2424      2426         0         0       0.0       0.0
*CONSTRAINED_JOINT_REVOLUTE_ID
   4030317                                                                      
      2427      2429      2428      2430         0         0       0.0       0.0
*CONSTRAINED_JOINT_SPHERICAL_ID
$HMNAME COMPS 8100016ConJoint2Node
$HWCOLOR COMPS 8100016      64
$#     jid                                                                 title
   8100002                                                                      
$#      n1        n2        n3        n4        n5        n6       rps      damp
   8100053   8100250         0         0         0         0       0.0       0.0
*CONSTRAINED_JOINT_SPHERICAL_ID
   8100003                                                                      
   8100251   8100252         0         0         0         0       0.0       0.0
*CONSTRAINED_JOINT_SPHERICAL_ID
   8100004                                                                      
   8100253   8100254         0         0         0         0       0.0       0.0
*CONSTRAINED_JOINT_SPHERICAL_ID
   8100005                                                                      
   8100255   8100088         0         0         0         0       0.0       0.0
$$        UNSUPPORTED CARDS - STARTS
*CONSTRAINED_JOINT_REVOLUTE_ID_LOCAL
$#     jid                                                                 title
   8100001                                                                      
$#      n1        n2        n3        n4        n5        n6       rps      damp
   8100005   8100086   8100006   8100087         0         0       0.0       0.0
$#    raid       lst   
        10         0
*CONSTRAINED_JOINT_STIFFNESS_GENERALIZED
$HMNAME PROPS 8100002CONGEN8100002
$#    jsid      pida      pidb      cida      cidb       jid   
   8100002   8100002   8100005   8100002   8100002         0
$#  lcidph     lcidt    lcidps   dlcidph    dlcidt   dlcidps       
   8100002   8100003   8100004   8100005   8100006   8100007
$#    esph      fmph       est       fmt      esps      fmps    
       0.0       0.0       0.0       0.0       0.0       0.0
$#   nsaph     psaph      nsat      psat     nsaps     psaps     
       0.0       0.0       0.0       0.0       0.0       0.0
*CONSTRAINED_JOINT_STIFFNESS_GENERALIZED
$HMNAME PROPS 8100003CONGEN8100003
$#    jsid      pida      pidb      cida      cidb       jid   
   8100003   8100005   8100004   8100002   8100002         0
$#  lcidph     lcidt    lcidps   dlcidph    dlcidt   dlcidps       
   8100002   8100003   8100004   8100005   8100006   8100007
$#    esph      fmph       est       fmt      esps      fmps    
       0.0       0.0       0.0       0.0       0.0       0.0
$#   nsaph     psaph      nsat      psat     nsaps     psaps     
       0.0       0.0       0.0       0.0       0.0       0.0
*CONSTRAINED_JOINT_STIFFNESS_GENERALIZED
$HMNAME PROPS 8100004CONGEN8100004
$#    jsid      pida      pidb      cida      cidb       jid   
   8100004   8100004   8100003   8100002   8100002         0
$#  lcidph     lcidt    lcidps   dlcidph    dlcidt   dlcidps       
   8100002   8100003   8100004   8100005   8100006   8100007
$#    esph      fmph       est       fmt      esps      fmps    
       0.0       0.0       0.0       0.0       0.0       0.0
$#   nsaph     psaph      nsat      psat     nsaps     psaps     
       0.0       0.0       0.0       0.0       0.0       0.0
*CONSTRAINED_JOINT_STIFFNESS_GENERALIZED
$HMNAME PROPS 8100005CONGEN8100005
$#    jsid      pida      pidb      cida      cidb       jid   
   8100005   8100003   8100001   8100002   8100002         0
$#  lcidph     lcidt    lcidps   dlcidph    dlcidt   dlcidps       
   8100002   8100003   8100004   8100005   8100006   8100007
$#    esph      fmph       est       fmt      esps      fmps    
       0.0       0.0       0.0       0.0       0.0       0.0
$#   nsaph     psaph      nsat      psat     nsaps     psaps     
       0.0       0.0       0.0       0.0       0.0       0.0
*CONSTRAINED_JOINT_STIFFNESS_GENERALIZED
$HMNAME PROPS 8100006CONGEN8100006
$#    jsid      pida      pidb      cida      cidb       jid   
   8100006        10   8100002   8100005   8100006         0
$#  lcidph     lcidt    lcidps   dlcidph    dlcidt   dlcidps       
         0   8100001         0         0   8100010         0
$#    esph      fmph       est       fmt      esps      fmps    
       0.0       0.0       0.0       0.0       0.0       0.0
$#   nsaph     psaph      nsat      psat     nsaps     psaps     
       0.0       0.0       0.0       0.0       0.0       0.0
*CONSTRAINED_RIGID_BODIES
$#    pidm      pids     iflag     
        14        12         0
        14        13         0
        14        39         0
        14        40         0
        14        41         0
        14        92         0
        14   8100008         0
   8100001   8100008         0
   8100002   8100006         0
   8100002   8100007         0
*ELEMENT_SOLID
$#   eid     pid      n1      n2      n3      n4      n5      n6      n7      n8
     771      12    2667    2668    2670    2669    2675    2676    2678    2677
     772      12    2669    2670    2672    2671    2677    2678    2680    2679
     773      12    2671    2672    2674    2673    2679    2680    2682    2681
     774      12    2593    2594    2676    2675    2597    2598    2684    2683
     775      12    2675    2676    2678    2677    2683    2684    2686    2685
     776      12    2677    2678    2680    2679    2685    2686    2688    2687
     777      12    2679    2680    2682    2681    2687    2688    2690    2689
     778      12    2597    2598    2684    2683    2601    2602    2692    2691
     779      12    2683    2684    2686    2685    2691    2692    2694    2693
     780      12    2685    2686    2688    2687    2693    2694    2696    2695
     781      12    2687    2688    2690    2689    2695    2696    2698    2697
     782      12    2601    2602    2692    2691    2605    2606    2700    2699
     783      12    2691    2692    2694    2693    2699    2700    2702    2701
     784      12    2693    2694    2696    2695    2701    2702    2704    2703
     785      12    2695    2696    2698    2697    2703    2704    2706    2705
     786      12    2605    2606    2700    2699    2609    2610    2708    2707
     787      12    2699    2700    2702    2701    2707    2708    2710    2709
     788      12    2701    2702    2704    2703    2709    2710    2712    2711
     789      12    2703    2704    2706    2705    2711    2712    2714    2713
     790      12    2609    2610    2708    2707    2613    2614    2716    2715
$ ... 703 like lines cut
*ELEMENT_SOLID
$#   eid     pid      n1      n2      n3      n4      n5      n6      n7      n8
 4023954      12    2159    2160    2163    2162    2168    2169    2172    2171
 4023955      12    2160    2161    2164    2163    2169    2170    2173    2172
 4023956      12    2162    2163    2166    2165    2171    2172    2175    2174
 4023957      12    2163    2164    2167    2166    2172    2173    2176    2175
 4023958      12    2168    2169    2172    2171    2177    2178    2181    2180
 4023959      12    2169    2170    2173    2172    2178    2179    2182    2181
 4023960      12    2171    2172    2175    2174    2180    2181    2184    2183
 4023961      12    2172    2173    2176    2175    2181    2182    2185    2184
 4023962      12    2159    2187    2189    2162    2160    2193    2195    2163
 4023963      12    2162    2189    2191    2165    2163    2195    2197    2166
 4023964      12    2160    2193    2195    2163    2161    2198    2199    2164
 4023965      12    2163    2195    2197    2166    2164    2199    2200    2167
 4023966      12    2161    2198    2199    2164    2170    2201    2202    2173
 4023967      12    2164    2199    2200    2167    2173    2202    2203    2176
 4023968      12    2170    2201    2202    2173    2179    2204    2205    2182
 4023969      12    2173    2202    2203    2176    2182    2205    2206    2185
 4023970      12    2179    2204    2205    2182    2178    2208    2210    2181
 4023971      12    2182    2205    2206    2185    2181    2210    2212    2184
 4023972      12    2178    2208    2210    2181    2177    2214    2216    2180
 4023973      12    2181    2210    2212    2184    2180    2216    2218    2183
$ ... 167 like lines cut
*ELEMENT_SOLID
$#   eid     pid      n1      n2      n3      n4      n5      n6      n7      n8
 8100002 8100006 8100256 8100257 8100259 8100258 8100260 8100261 8100263 8100262
 8100003 8100007 8100264 8100265 8100267 8100266 8100268 8100269 8100271 8100270
 8100004 8100008 8100272 8100273 8100275 8100274 8100276 8100277 8100279 8100278
 8100109 8100001 8100995 8100985 8101065 8101075 8100992 8100992 8101072 8101072
 8100110 8100001 8100984 8100994 8101074 8101064 8100991 8100991 8101071 8101071
 8100111 8100001 8101000 8100987 8101067 8101080 8101007 8101007 8101087 8101087
 8100112 8100001 8101006 8100989 8101069 8101086 8100998 8100998 8101078 8101078
 8100113 8100001 8101002 8100990 8101070 8101082 8101020 8101020 8101100 8101100
 8100114 8100001 8101021 8100993 8101073 8101101 8101004 8101004 8101084 8101084
 8100115 8100001 8100009 8100008 8100834 8100822 8100013 8100012 8100835 8100823
 8100116 8100001 8100031 8100768 8100770 8100810 8100032 8100033 8100812 8100811
 8100117 8100001 8100017 8100016 8100808 8100795 8100019 8100018 8100809 8100796
 8100118 8100001 8100028 8100767 8100772 8100816 8100030 8100029 8100818 8100817
 8100119 8100001 8100011 8100010 8100846 8100836 8100015 8100014 8100847 8100837
 8100120 8100001 8100034 8100769 8100771 8100813 8100035 8100036 8100815 8100814
 8100121 8100001 8100024 8100026 8100790 8100774 8100025 8100027 8100794 8100775
 8100122 8100001 8100774 8100790 8100016 8100017 8100775 8100794 8100018 8100019
 8100123 8100001 8100795 8100808 8100010 8100011 8100796 8100809 8100014 8100015
 8100124 8100001 8100820 8100821 8101120 8100982 8100819 8100773 8101121 8101062
 8100125 8100001 8100813 8100771 8100768 8100031 8100814 8100815 8100033 8100032
$ ... 303 like lines cut
*ELEMENT_SHELL_THICKNESS
$#   eid     pid      n1      n2      n3      n4      n5      n6      n7      n8
       1      14    2413    2415    2416    2414       0       0       0       0
$#         thic1           thic2           thic3           thic4            beta
         0.00635         0.00635         0.00635         0.00635             0.0
       2      14    2413    2415    2418    2417       0       0       0       0
         0.00635         0.00635         0.00635         0.00635             0.0
       3      14    2414    2416    2420    2419       0       0       0       0
         0.00635         0.00635         0.00635         0.00635             0.0
       4      14    2421    2417    2419    2422       0       0       0       0
         0.00635         0.00635         0.00635         0.00635             0.0
       5      14    2417    2418    2420    2419       0       0       0       0
         0.00635         0.00635         0.00635         0.00635             0.0
       6      14    2417    2437    2438    2436       0       0       0       0
         0.00635         0.00635         0.00635         0.00635             0.0
       7      14    2437    2439    2440    2438       0       0       0       0
         0.00635         0.00635         0.00635         0.00635             0.0
       8      14    2441    2439    2440    2442       0       0       0       0
         0.00635         0.00635         0.00635         0.00635             0.0
       9      14    2439    2443    2444    2440       0       0       0       0
         0.00635         0.00635         0.00635         0.00635             0.0
      10      14    2419    2443    2444    2446       0       0       0       0
         0.00635         0.00635         0.00635         0.00635             0.0
      11      14    2447    2436    2442    2448       0       0       0       0
$ ... 7 like lines cut
*ELEMENT_SHELL
$#   eid     pid      n1      n2      n3      n4      n5      n6      n7      n8
      15      13    2477    2483    2485    2479       0       0       0       0
      16      13    2479    2485    2487    2481       0       0       0       0
      17      13    2483    2489    2491    2485       0       0       0       0
      18      13    2485    2491    2493    2487       0       0       0       0
      19      13    2489    2495    2497    2491       0       0       0       0
      20      13    2491    2497    2499    2493       0       0       0       0
      21      13    2495    2501    2503    2497       0       0       0       0
      22      13    2497    2503    2505    2499       0       0       0       0
      23      13    2501    2507    2509    2503       0       0       0       0
      24      13    2503    2509    2511    2505       0       0       0       0
      25      13    2507    2513    2515    2509       0       0       0       0
      26      13    2509    2515    2517    2511       0       0       0       0
      27      13    2513    2519    2521    2515       0       0       0       0
      28      13    2515    2521    2523    2517       0       0       0       0
      29      13    2519    2525    2527    2521       0       0       0       0
      30      13    2521    2527    2529    2523       0       0       0       0
      31      13    2525    2531    2533    2527       0       0       0       0
      32      13    2527    2533    2535    2529       0       0       0       0
      33      13    2531    2537    2539    2533       0       0       0       0
      34      13    2533    2539    2541    2535       0       0       0       0
$ ... 736 like lines cut
*ELEMENT_SHELL
$#   eid     pid      n1      n2      n3      n4      n5      n6      n7      n8
 8100473 8100012 8100008 8100834 8100835 8100012       0       0       0       0
 8100474 8100012 8100846 8100008 8100012 8100847       0       0       0       0
 8100475 8100012 8100808 8100010 8100014 8100809       0       0       0       0
 8100476 8100012 8100010 8100846 8100847 8100014       0       0       0       0
 8100477 8100012 8100790 8100016 8100018 8100794       0       0       0       0
 8100478 8100012 8100016 8100808 8100809 8100018       0       0       0       0
 8100479 8100012 8100834 8100020 8100022 8100835       0       0       0       0
 8100480 8100012 8101120 8100022 8100020 8101121       0       0       0       0
 8100481 8100012 8100026 8100790 8100794 8100027       0       0       0       0
 8100482 8100012 8101102 8100026 8100027 8101103       0       0       0       0
 8100483 8100012 8100767 8100772 8100818 8100029       0       0       0       0
 8100484 8100012 8100773 8100767 8100029 8100821       0       0       0       0
 8100485 8100012 8100768 8100770 8100812 8100033       0       0       0       0
 8100486 8100012 8100771 8100768 8100033 8100815       0       0       0       0
 8100487 8100012 8100769 8100771 8100815 8100036       0       0       0       0
 8100488 8100012 8100772 8100769 8100036 8100818       0       0       0       0
 8100489 8100012 8100041 8100856 8100857 8100037       0       0       0       0
 8100490 8100012 8100858 8100041 8100037 8100859       0       0       0       0
 8100491 8100012 8100043 8100850 8100851 8100039       0       0       0       0
 8100492 8100012 8100856 8100043 8100039 8100857       0       0       0       0
$ ... 142 like lines cut
*ELEMENT_MASS
$HMNAME COMPS 8100015ElemMass
$HWCOLOR COMPS 8100015      61
$#   eid     nid            mass     pid   
 8100637 8101161         0.01344 8100015
 8100638 8101162         0.01344 8100015
 8100639 8101163         0.01344 8100015
 8100640 8101164         0.01344 8100015
 8100641 8101165         0.01344 8100015
 8100642 8101166         0.01344 8100015
 8100643 8101167         0.01344 8100015
 8100644 8101168         0.01344 8100015
 8100645 8101141         0.01344 8100015
 8100646 8101142         0.01344 8100015
 8100647 8101147         0.01344 8100015
 8100648 8101148         0.01344 8100015
 8100649 8101149         0.01344 8100015
 8100650 8101150         0.01344 8100015
 8100651 8101151         0.01344 8100015
 8100652 8101152         0.01344 8100015
 8100653 8101137         0.01344 8100015
 8100654 8101138         0.01344 8100015
 8100655 8101139         0.01344 8100015
 8100656 8101140         0.01344 8100015
$ ... 12 like lines cut
*ELEMENT_SEATBELT_ACCELEROMETER
$#  sbacid      nid1      nid2      nid3     igrav    intopt      mass    
   4023370      2457      2471      2465         0         0       0.0
*NODE
$#   nid               x               y               z      tc      rc  
       4        0.531633             0.0        0.231714       0       0
*NODE
$#   nid               x               y               z      tc      rc  
      12        0.536849             0.0        0.240246       0       0
*NODE
$#   nid               x               y               z      tc      rc  
      18        0.536849           0.005        0.240246       0       0
*NODE
$#   nid               x               y               z      tc      rc  
    2159        0.433304       -0.029053        0.050413       0       0
    2160        0.424277       -0.019289        0.052907       0       0
    2161         0.41525       -0.009525          0.0554       0       0
    2162        0.437824        -0.02802        0.055567       0       0
    2163        0.429586       -0.018773         0.05909       0       0
    2164        0.421349       -0.009525        0.062614       0       0
    2165        0.442307       -0.026941        0.060743       0       0
    2166        0.434877       -0.018233        0.065285       0       0
    2167        0.427448       -0.009525        0.069828       0       0
    2168        0.446793    3.885942e-09        0.046687       0       0
    2169        0.431022    2.708083e-09        0.051044       0       0
    2170         0.41525    1.530224e-09          0.0554       0       0
    2171         0.44931    3.674991e-09        0.050805       0       0
    2172         0.43533    2.461535e-09        0.056709       0       0
    2173        0.421349    1.248079e-09        0.062614       0       0
    2174        0.451827    3.464040e-09        0.054922       0       0
    2175        0.439638    2.214987e-09        0.062375       0       0
    2176        0.427448    9.659342e-10        0.069828       0       0
    2177        0.433304        0.029053        0.050413       0       0
    2178        0.424277        0.019289        0.052907       0       0
$ ... 1943 like lines cut
*NODE
$#   nid               x               y               z      tc      rc  
 8100005        0.495823    1.979060e-09        0.199926       0       0
 8100006        0.495823             0.1        0.199926       0       0
 8100007        0.495823           -0.01        0.199926       0       0
 8100008        0.396119       -0.029097        0.092547       0       0
 8100009        0.404946        -0.02356        0.087152       0       0
 8100010        0.385833    1.979060e-09        0.098831       0       0
 8100011        0.396649    1.979060e-09        0.092223       0       0
 8100012        0.400215       -0.029097        0.099265       0       0
 8100013        0.409053        -0.02356        0.093866       0       0
 8100014        0.389929    1.979060e-09         0.10555       0       0
 8100015        0.400755    1.979060e-09        0.098935       0       0
 8100016        0.396562        0.028783        0.092276       0       0
 8100017        0.404946        0.023559        0.087152       0       0
 8100018        0.400665        0.028783         0.09899       0       0
 8100019        0.409053        0.023559        0.093866       0       0
 8100020        0.422824       -0.041471        0.076227       0       0
 8100021        0.423224       -0.033323        0.075984       0       0
 8100022        0.426928       -0.041471        0.082944       0       0
 8100023        0.427326       -0.033323        0.082699       0       0
 8100024        0.423504        0.033348        0.075813       0       0
$ ... 821 like lines cut
*END
